# CIF file created by FINDSYM, version 7.1.3

data_findsym-output
_audit_creation_method FINDSYM

_cell_length_a     5.7465800000
_cell_length_b     11.3353100000
_cell_length_c     11.3386100000
_cell_angle_alpha  90.0000000000
_cell_angle_beta   92.2607300000
_cell_angle_gamma  90.0000000000
_cell_volume       738.0138614720

_symmetry_space_group_name_H-M "P 1 21 1"
_symmetry_Int_Tables_number 4
_space_group.reference_setting '004:P 2yb'
_space_group.transform_Pp_abc a,b,c;0,0,0

loop_
_space_group_symop_id
_space_group_symop_operation_xyz
1 x,y,z
2 -x,y+1/2,-z

loop_
_atom_site_label
_atom_site_type_symbol
_atom_site_symmetry_multiplicity
_atom_site_Wyckoff_symbol
_atom_site_fract_x
_atom_site_fract_y
_atom_site_fract_z
_atom_site_occupancy
_atom_site_fract_symmform
Pb1 Pb   2 a  0.50713  0.49842  0.52138  1.00000 Dx,Dy,Dz 
Pb2 Pb   2 a  0.39928  0.45848 -0.00225  1.00000 Dx,Dy,Dz 
Cl1 Cl   2 a  0.89598  0.53633  0.04213  1.00000 Dx,Dy,Dz 
Cl2 Cl   2 a  0.62823  0.24475 -0.03767  1.00000 Dx,Dy,Dz 
Cl3 Cl   2 a  0.50713  0.46439  0.26698  1.00000 Dx,Dy,Dz 
Cl4 Cl   2 a  0.00397  0.47337  0.53915  1.00000 Dx,Dy,Dz 
Cl5 Cl   2 a  0.46605  0.24990  0.54367  1.00000 Dx,Dy,Dz 
Cl6 Cl   2 a  0.55189  0.54006  0.76868  1.00000 Dx,Dy,Dz 
C1  C    2 a -0.02381  0.18664  0.69679  1.00000 Dx,Dy,Dz 
C2  C    2 a -0.06616  0.24459  0.30312  1.00000 Dx,Dy,Dz 
H1  H    2 a  0.82477  0.16868  0.74938  1.00000 Dx,Dy,Dz 
H2  H    2 a  0.04727  0.10464  0.66217  1.00000 Dx,Dy,Dz 
H3  H    2 a -0.06756  0.24718  0.62437  1.00000 Dx,Dy,Dz 
H4  H    2 a  0.20304  0.18383  0.84357  1.00000 Dx,Dy,Dz 
H5  H    2 a  0.30737  0.25539  0.72553  1.00000 Dx,Dy,Dz 
H6  H    2 a  0.06037  0.41053  0.75709  1.00000 Dx,Dy,Dz 
H7  H    2 a -0.06107  0.33871  0.86655  1.00000 Dx,Dy,Dz 
H8  H    2 a  0.78429  0.20379  0.25633  1.00000 Dx,Dy,Dz 
H9  H    2 a  0.87775  0.29242  0.38089  1.00000 Dx,Dy,Dz 
H10 H    2 a  0.06370  0.17805  0.32905  1.00000 Dx,Dy,Dz 
H11 H    2 a -0.07428  0.39533  0.19370  1.00000 Dx,Dy,Dz 
H12 H    2 a  0.18238  0.37586  0.26573  1.00000 Dx,Dy,Dz 
H13 H    2 a  0.24809  0.21268  0.14527  1.00000 Dx,Dy,Dz 
H14 H    2 a  0.00371  0.24568  0.06901  1.00000 Dx,Dy,Dz 
N1  N    2 a  0.15987  0.24219  0.77455  1.00000 Dx,Dy,Dz 
N2  N    2 a  0.09485  0.35361  0.82651  1.00000 Dx,Dy,Dz 
N3  N    2 a  0.04323  0.33062  0.22323  1.00000 Dx,Dy,Dz 
N4  N    2 a  0.14077  0.28137  0.11843  1.00000 Dx,Dy,Dz 

# end of cif
